LTspice 26.0.2 for Windows
Circuit: C:\Users\waynl\Documents\LTspice\inverter.net
Start Time: Fri Jun 26 15:17:33 2026
solver = Normal
Maximum thread count: 16
tnom = 27
temp = 27
method = trap
Direct Newton iteration failed to find operating point.
Starting Gmin stepping
Gmin stepping succeeded in finding the operating point.

Total elapsed time: 0.031 seconds.

Files loaded:
C:\Users\waynl\Documents\LTspice\inverter.net
C:\Users\waynl\AppData\Local\LTspice\lib\sub\LTC2.lib

