LTspice 26.0.2 for Windows
Circuit: C:\Users\waynl\Documents\LTspice\inverter.net
Start Time: Wed Jun 24 13:14:43 2026
solver = Normal
Maximum thread count: 16
tnom = 27
temp = 27
method = trap
ERROR: Node nc_01 is floating and connected to current source u1:GESD3
ERROR: Node nc_02 is floating and connected to current source u1:GESD1
WARNING: Node nc_09 is floating.

Direct Newton iteration failed to find operating point.
Starting Gmin stepping
Gmin stepping succeeded in finding the operating point.

Total elapsed time: 0.046 seconds.

Files loaded:
C:\Users\waynl\Documents\LTspice\inverter.net
C:\Users\waynl\AppData\Local\LTspice\lib\sub\LTC.lib
C:\Users\waynl\AppData\Local\LTspice\lib\sub\LTC2.lib
C:\Users\waynl\AppData\Local\LTspice\lib\sub\UniversalOpAmp1.lib

