LTspice 26.0.2 for Windows
Circuit: C:\Users\waynl\Documents\LTspice\IXSJ43N120R1_Id(Vds,Vgs).net
Start Time: Fri Jun 26 11:15:10 2026
Options:plotwinsize=0

.step vgs=0
solver = Normal
Maximum thread count: 16
tnom = 27
temp = 27
method = trap
.OP point found by inspection.
.OP point found by inspection.

.step vgs=1
Direct Newton iteration succeeded in finding operating point.

.step vgs=2
Direct Newton iteration succeeded in finding operating point.

.step vgs=3
Direct Newton iteration succeeded in finding operating point.

.step vgs=4
Direct Newton iteration succeeded in finding operating point.

.step vgs=5
Direct Newton iteration succeeded in finding operating point.

.step vgs=6
Direct Newton iteration succeeded in finding operating point.

.step vgs=7
Direct Newton iteration succeeded in finding operating point.

.step vgs=8
Direct Newton iteration succeeded in finding operating point.

.step vgs=9
Direct Newton iteration succeeded in finding operating point.

.step vgs=10
Direct Newton iteration succeeded in finding operating point.

.step vgs=11
Direct Newton iteration succeeded in finding operating point.

.step vgs=12
Direct Newton iteration succeeded in finding operating point.

.step vgs=13
Direct Newton iteration succeeded in finding operating point.

.step vgs=14
Direct Newton iteration succeeded in finding operating point.

.step vgs=15
Direct Newton iteration succeeded in finding operating point.

.step vgs=16
Direct Newton iteration succeeded in finding operating point.

.step vgs=17
Direct Newton iteration succeeded in finding operating point.

.step vgs=18
Direct Newton iteration succeeded in finding operating point.
Total elapsed time: 2.106 seconds.

Files loaded:
C:\Users\waynl\Documents\LTspice\IXSJ43N120R1_Id(Vds,Vgs).net
C:\Users\waynl\AppData\Local\LTspice\lib\cmp\standard.mos

