LTspice 26.0.2 for Windows
Circuit: C:\Users\waynl\Documents\LTspice\testAmplifier.net
Start Time: Fri Jun 26 17:23:47 2026
solver = Normal
Maximum thread count: 16
tnom = 27
temp = 27
method = trap
ERROR: Node n007 is floating and connected to current source u1:GESD3

Direct Newton iteration failed to find operating point.
Starting Gmin stepping
Gmin stepping succeeded in finding the operating point.

Total elapsed time: 0.169 seconds.

Files loaded:
C:\Users\waynl\Documents\LTspice\testAmplifier.net
C:\Users\waynl\AppData\Local\LTspice\lib\cmp\standard.dio
C:\Users\waynl\AppData\Local\LTspice\lib\cmp\standard.mos
C:\Users\waynl\AppData\Local\LTspice\lib\sub\LTC.lib
C:\Users\waynl\AppData\Local\LTspice\lib\sub\LTC2.lib

